Version 4
SHEET 1 1476 1572
WIRE -112 912 -192 912
WIRE 48 912 -48 912
WIRE 256 912 176 912
WIRE 416 912 320 912
WIRE -592 1024 -704 1024
WIRE -448 1024 -512 1024
WIRE -288 1024 -368 1024
WIRE -192 1024 -192 912
WIRE -192 1024 -288 1024
WIRE -112 1024 -192 1024
WIRE 48 1024 48 912
WIRE 48 1024 -16 1024
WIRE 176 1024 176 912
WIRE 176 1024 48 1024
WIRE 240 1024 176 1024
WIRE 416 1024 416 912
WIRE 416 1024 336 1024
WIRE 512 1024 416 1024
WIRE 720 1024 592 1024
WIRE 992 1024 800 1024
WIRE -288 1184 -288 1024
WIRE -208 1184 -288 1184
WIRE -32 1184 -32 1072
WIRE -32 1184 -128 1184
WIRE 256 1184 256 1072
WIRE 256 1184 -32 1184
WIRE -32 1248 -32 1184
WIRE -32 1248 -160 1248
WIRE -32 1312 -32 1248
WIRE -160 1328 -160 1248
WIRE 192 1328 16 1328
WIRE 336 1328 192 1328
WIRE 464 1328 336 1328
WIRE 592 1328 544 1328
WIRE 192 1392 192 1328
WIRE 336 1392 336 1328
WIRE -160 1472 -160 1392
WIRE -32 1472 -32 1408
WIRE -32 1472 -160 1472
WIRE -32 1552 -32 1472
WIRE 192 1552 192 1472
WIRE 336 1552 336 1456
FLAG -704 1024 0
FLAG -32 1552 0
FLAG 192 1552 0
FLAG 336 1552 0
FLAG 592 1328 0
FLAG 992 1024 0
SYMBOL pmos -112 1072 R270
SYMATTR InstName M1
SYMATTR Value AO6407
SYMBOL pmos 336 1072 M270
SYMATTR InstName M2
SYMATTR Value AO6407
SYMBOL diode 320 896 R90
WINDOW 0 0 32 VBottom 2
WINDOW 3 32 32 VTop 2
SYMATTR InstName D1
SYMATTR Value 1N4148
SYMBOL diode -112 928 R270
WINDOW 0 32 32 VTop 2
WINDOW 3 0 32 VBottom 2
SYMATTR InstName D2
SYMATTR Value 1N4148
SYMBOL voltage -496 1024 R90
WINDOW 0 -32 56 VBottom 2
WINDOW 3 32 56 VTop 2
WINDOW 123 0 0 Left 0
WINDOW 39 0 0 Left 0
SYMATTR InstName V1
SYMATTR Value 0
SYMBOL res -112 1168 R90
WINDOW 0 0 56 VBottom 2
WINDOW 3 32 56 VTop 2
SYMATTR InstName R1
SYMATTR Value 100k
SYMBOL pmos 16 1408 R180
SYMATTR InstName M3
SYMATTR Value BSS84
SYMBOL res 176 1376 R0
SYMATTR InstName R2
SYMATTR Value 470k
SYMBOL cap 320 1392 R0
SYMATTR InstName C1
SYMATTR Value 100n
SYMBOL voltage 448 1328 R270
WINDOW 0 -32 56 VBottom 2
WINDOW 3 32 56 VTop 2
WINDOW 123 0 0 Left 0
WINDOW 39 0 0 Left 0
SYMATTR InstName V2
SYMATTR Value 3
SYMBOL res 496 1040 R270
WINDOW 0 32 56 VTop 2
WINDOW 3 0 56 VBottom 2
SYMATTR InstName R3
SYMATTR Value 10
SYMBOL diode -144 1392 R180
WINDOW 0 24 64 Left 2
WINDOW 3 24 0 Left 2
SYMATTR InstName D3
SYMATTR Value 1N4148
SYMBOL voltage 704 1024 R270
WINDOW 0 -32 56 VBottom 2
WINDOW 3 32 56 VTop 2
WINDOW 123 0 0 Left 0
WINDOW 39 0 0 Left 0
SYMATTR InstName V3
SYMATTR Value 3
SYMBOL res -464 1040 R270
WINDOW 0 32 56 VTop 2
WINDOW 3 0 56 VBottom 2
SYMATTR InstName R4
SYMATTR Value 10
TEXT -584 1528 Left 2 !.tran 1
