Version 4
SHEET 1 1476 1544
WIRE 32 0 -416 0
WIRE 176 0 112 0
WIRE 272 0 176 0
WIRE 560 0 352 0
WIRE 288 208 288 160
WIRE 176 224 176 0
WIRE 256 224 176 224
WIRE 560 240 560 0
WIRE 560 240 320 240
WIRE 976 240 560 240
WIRE 256 256 176 256
WIRE 288 320 288 272
WIRE 16 432 -432 432
WIRE 176 432 176 256
WIRE 176 432 96 432
WIRE 272 432 176 432
WIRE 560 432 352 432
WIRE -464 1024 -576 1024
WIRE -160 1024 -160 816
WIRE -160 1024 -384 1024
WIRE 0 1024 -160 1024
WIRE 256 1024 256 816
WIRE 256 1024 80 1024
WIRE 480 1024 256 1024
WIRE 752 1024 560 1024
WIRE -464 1184 -576 1184
WIRE -304 1184 -384 1184
WIRE -464 1360 -576 1360
WIRE -304 1360 -384 1360
FLAG -576 1024 0
FLAG 752 1024 0
FLAG 288 320 0
FLAG 288 160 OPAMP+
FLAG -576 1184 0
FLAG -304 1184 OPAMP+
FLAG -160 816 IN-
FLAG 256 816 IN+
FLAG -416 0 IN-
FLAG -432 432 IN+
FLAG 560 432 VREF
FLAG -576 1360 0
FLAG -304 1360 VREF
FLAG 976 240 I_PV->V
SYMBOL res 128 -16 R90
WINDOW 0 0 56 VBottom 2
WINDOW 3 32 56 VTop 2
SYMATTR InstName R1
SYMATTR Value 1k
SYMBOL res 368 -16 R90
WINDOW 0 0 56 VBottom 2
WINDOW 3 32 56 VTop 2
SYMATTR InstName R2
SYMATTR Value 100k
SYMBOL res 368 416 R90
WINDOW 0 0 56 VBottom 2
WINDOW 3 32 56 VTop 2
SYMATTR InstName R3
SYMATTR Value 100k
SYMBOL res 112 416 R90
WINDOW 0 0 56 VBottom 2
WINDOW 3 32 56 VTop 2
SYMATTR InstName R4
SYMATTR Value 1k
SYMBOL res -16 1040 R270
WINDOW 0 32 56 VTop 2
WINDOW 3 0 56 VBottom 2
SYMATTR InstName SHUNT
SYMATTR Value 0.005
SYMBOL current -464 1024 R270
WINDOW 0 32 40 VTop 2
WINDOW 3 -32 40 VBottom 2
WINDOW 123 0 0 Left 0
WINDOW 39 0 0 Left 0
SYMATTR InstName I1
SYMATTR Value SINE(0 2 1 0 0 0 1)
SYMBOL voltage -368 1184 R90
WINDOW 0 32 56 VTop 2
WINDOW 3 -32 56 VBottom 2
WINDOW 123 0 0 Left 0
WINDOW 39 0 0 Left 0
SYMATTR InstName V2
SYMATTR Value 3.3
SYMBOL voltage 464 1024 R270
WINDOW 0 32 56 VTop 2
WINDOW 3 -32 56 VBottom 2
WINDOW 123 0 0 Left 0
WINDOW 39 -60 56 VBottom 2
SYMATTR InstName BAT
SYMATTR Value 3
SYMATTR SpiceLine Rser=1
SYMBOL voltage -368 1360 R90
WINDOW 0 -32 56 VBottom 2
WINDOW 3 32 56 VTop 2
WINDOW 123 0 0 Left 0
WINDOW 39 0 0 Left 0
SYMATTR InstName V1
SYMATTR Value 1.65
SYMBOL OpAmps\\UniversalOpAmp2 288 240 R0
SYMATTR InstName U1
TEXT -584 1528 Left 2 !.tran 1
