Version 4
SHEET 1 1476 2040
WIRE 352 -192 96 -192
WIRE 224 16 224 -32
WIRE 96 32 96 -192
WIRE 96 32 32 32
WIRE 192 32 96 32
WIRE 352 48 352 -192
WIRE 352 48 256 48
WIRE 192 64 16 64
WIRE 224 128 224 80
WIRE 336 256 112 256
WIRE -1504 416 -1680 416
WIRE -1344 416 -1424 416
WIRE -1264 416 -1344 416
WIRE -976 416 -1184 416
WIRE 224 448 224 400
WIRE 112 464 112 256
WIRE 112 464 64 464
WIRE 192 464 112 464
WIRE 336 480 336 256
WIRE 336 480 256 480
WIRE -1344 496 -1344 416
WIRE 192 496 64 496
WIRE 224 560 224 512
WIRE 224 768 224 720
WIRE 192 784 64 784
WIRE 384 800 256 800
WIRE 192 816 64 816
WIRE -1520 848 -1680 848
WIRE -1344 848 -1440 848
WIRE -1264 848 -1344 848
WIRE -976 848 -1184 848
WIRE 224 880 224 832
WIRE -1344 944 -1344 848
WIRE -432 1520 -544 1520
WIRE -128 1520 -128 1312
WIRE -128 1520 -352 1520
WIRE 32 1520 -128 1520
WIRE 288 1520 288 1312
WIRE 288 1520 112 1520
WIRE 512 1520 288 1520
WIRE 784 1520 592 1520
WIRE -432 1680 -544 1680
WIRE -272 1680 -352 1680
FLAG -544 1520 0
FLAG 784 1520 0
FLAG 224 560 0
FLAG 224 400 OPAMP+
FLAG -544 1680 0
FLAG -272 1680 OPAMP+
FLAG -128 1312 DCDC_OUT
FLAG 288 1312 LOAD
FLAG -976 848 PV_I
FLAG 224 -32 OPAMP+
FLAG 224 128 0
FLAG 16 64 DCDC_OUT
FLAG -1680 416 OP_V2-
FLAG -1680 848 OP_V1-
FLAG -1344 496 OP_VS+
FLAG -976 416 0
FLAG 32 32 OP_V2-
FLAG 64 496 LOAD
FLAG 64 464 OP_V1-
FLAG -1344 944 OP_VS-
FLAG 224 720 OPAMP+
FLAG 224 880 0
FLAG 64 816 OP_VS+
FLAG 64 784 OP_VS-
FLAG 384 800 PV_I
SYMBOL res -1408 400 R90
WINDOW 0 0 56 VBottom 2
WINDOW 3 32 56 VTop 2
SYMATTR InstName R1
SYMATTR Value 1k
SYMBOL res -1168 400 R90
WINDOW 0 0 56 VBottom 2
WINDOW 3 32 56 VTop 2
SYMATTR InstName R2
SYMATTR Value 100k
SYMBOL res -1168 832 R90
WINDOW 0 0 56 VBottom 2
WINDOW 3 32 56 VTop 2
SYMATTR InstName R3
SYMATTR Value 100k
SYMBOL res -1424 832 R90
WINDOW 0 0 56 VBottom 2
WINDOW 3 32 56 VTop 2
SYMATTR InstName R4
SYMATTR Value 1k
SYMBOL res 16 1536 R270
WINDOW 0 32 56 VTop 2
WINDOW 3 0 56 VBottom 2
SYMATTR InstName SHUNT
SYMATTR Value 0.005
SYMBOL current -432 1520 R270
WINDOW 0 32 40 VTop 2
WINDOW 3 -32 40 VBottom 2
WINDOW 123 0 0 Left 0
WINDOW 39 0 0 Left 0
SYMATTR InstName I1
SYMATTR Value SINE(1 1 1 0 0 0 1)
SYMBOL voltage -336 1680 R90
WINDOW 0 32 56 VTop 2
WINDOW 3 -32 56 VBottom 2
WINDOW 123 0 0 Left 0
WINDOW 39 0 0 Left 0
SYMATTR InstName V2
SYMATTR Value 3.3
SYMBOL res 496 1536 R270
WINDOW 0 32 56 VTop 2
WINDOW 3 0 56 VBottom 2
SYMATTR InstName LOAD
SYMATTR Value 1
SYMBOL OpAmps\\UniversalOpAmp2 224 48 R0
SYMATTR InstName A
SYMBOL OpAmps\\UniversalOpAmp2 224 480 R0
SYMATTR InstName C
SYMBOL OpAmps\\UniversalOpAmp2 224 800 R0
SYMATTR InstName D
TEXT -520 1768 Left 2 !.tran 1
